REMARK  Name = ligand8.pdb
REMARK  9 active torsions:
REMARK  status: ('A' for Active; 'I' for Inactive)
REMARK    1  A    between atoms: C1_1  and  C2_2
REMARK    2  A    between atoms: C2_2  and  C3_3
REMARK    3  A    between atoms: C3_3  and  C4_4
REMARK    4  A    between atoms: C4_4  and  C5_5
REMARK    5  A    between atoms: C5_5  and  C6_6
REMARK    6  A    between atoms: C8_8  and  O2_23
REMARK    7  A    between atoms: C12_12  and  C21_22
REMARK    8  A    between atoms: C16_16  and  C19_20
REMARK    9  A    between atoms: C16_16  and  C20_21
REMARK                            x       y       z     vdW  Elec       q    Type
REMARK                         _______ _______ _______ _____ _____    ______ ____
ROOT
ATOM      1  C6  UNL     1       1.834   0.348  -1.619  0.00  0.00    +0.000 A 
ATOM      2  C7  UNL     1       1.347   1.639  -1.390  0.00  0.00    +0.000 A 
ATOM      3  C8  UNL     1       0.166   1.822  -0.669  0.00  0.00    +0.000 A 
ATOM      4  C9  UNL     1      -0.563   0.735  -0.165  0.00  0.00    +0.000 A 
ATOM      5  C10 UNL     1      -1.840   0.943   0.614  0.00  0.00    +0.000 C 
ATOM      6  C11 UNL     1      -2.983   1.426  -0.306  0.00  0.00    +0.000 C 
ATOM      7  C12 UNL     1      -4.374   1.206   0.235  0.00  0.00    +0.000 C 
ATOM      8  C13 UNL     1      -4.602   0.502   1.355  0.00  0.00    +0.000 C 
ATOM      9  C14 UNL     1      -3.523  -0.154   2.160  0.00  0.00    +0.000 C 
ATOM     10  C15 UNL     1      -2.170  -0.313   1.442  0.00  0.00    +0.000 C 
ATOM     11  C16 UNL     1      -1.974  -1.627   0.633  0.00  0.00    +0.000 C 
ATOM     12  O1  UNL     1      -0.654  -1.700   0.055  0.00  0.00    +0.000 OA
ATOM     13  C17 UNL     1      -0.073  -0.550  -0.398  0.00  0.00    +0.000 A 
ATOM     14  C18 UNL     1       1.114  -0.740  -1.113  0.00  0.00    +0.000 A 
ATOM     15  C19 UNL     1      -2.021  -2.842   1.586  0.00  0.00    +0.000 C 
ATOM     16  C20 UNL     1      -2.984  -1.892  -0.491  0.00  0.00    +0.000 C 
ATOM     17  C21 UNL     1      -5.488   1.830  -0.555  0.00  0.00    +0.000 C 
ENDROOT
BRANCH   3  18
ATOM     18  O2  UNL     1      -0.293   3.090  -0.437  0.00  0.00    +0.000 OA
ATOM     19  H30 UNL     1       0.331   3.725  -0.823  0.00  0.00    +0.000 HD
ENDBRANCH   3  18
BRANCH   1  20
ATOM     20  C5  UNL     1       3.116   0.131  -2.384  0.00  0.00    +0.000 C 
BRANCH  20  21
ATOM     21  C4  UNL     1       4.376   0.515  -1.600  0.00  0.00    +0.000 C 
BRANCH  21  22
ATOM     22  C3  UNL     1       4.640  -0.403  -0.402  0.00  0.00    +0.000 C 
BRANCH  22  24
ATOM     23  C1  UNL     1       6.217  -0.944   1.488  0.00  0.00    +0.000 C 
ATOM     24  C2  UNL     1       5.951  -0.039   0.296  0.00  0.00    +0.000 C 
ENDBRANCH  22  24
ENDBRANCH  21  22
ENDBRANCH  20  21
ENDBRANCH   1  20
TORSDOF 5
