MODEL 1
REMARK VINA RESULT:      -6.3      0.000      0.000
REMARK  5 active torsions:
REMARK  status: ('A' for Active; 'I' for Inactive)
REMARK    1  A    between atoms: C2_2  and  C3_3 
REMARK    2  A    between atoms: C3_3  and  C4_4 
REMARK    3  A    between atoms: C4_4  and  C5_5 
REMARK    4  A    between atoms: C5_5  and  C6_6 
REMARK    5  A    between atoms: C8_8  and  O2_23 
ROOT
HETATM    1  C6  UNL     1      18.893  14.169  -5.963  1.00  0.00    -0.053 A 
HETATM    2  C7  UNL     1      19.883  13.821  -6.886  1.00  0.00     0.044 A 
HETATM    3  C8  UNL     1      19.537  13.542  -8.210  1.00  0.00     0.075 A 
HETATM    4  C9  UNL     1      18.206  13.595  -8.648  1.00  0.00     0.013 A 
HETATM    5  C10 UNL     1      17.842  13.292 -10.082  1.00  0.00     0.035 C 
HETATM    6  C11 UNL     1      18.001  11.787 -10.393  1.00  0.00     0.043 C 
HETATM    7  C12 UNL     1      17.232  11.299 -11.595  1.00  0.00    -0.087 C 
HETATM    8  C13 UNL     1      16.353  12.077 -12.245  1.00  0.00    -0.024 C 
HETATM    9  C14 UNL     1      16.025  13.481 -11.839  1.00  0.00     0.035 C 
HETATM   10  C15 UNL     1      16.454  13.872 -10.413  1.00  0.00     0.032 C 
HETATM   11  C16 UNL     1      15.413  13.604  -9.287  1.00  0.00     0.065 C 
HETATM   12  O1  UNL     1      15.892  14.063  -8.006  1.00  0.00    -0.340 OA
HETATM   13  C17 UNL     1      17.222  13.941  -7.721  1.00  0.00     0.079 A 
HETATM   14  C18 UNL     1      17.563  14.229  -6.396  1.00  0.00     0.044 A 
HETATM   15  C19 UNL     1      14.148  14.457  -9.529  1.00  0.00     0.046 C 
HETATM   16  C20 UNL     1      14.956  12.150  -9.115  1.00  0.00     0.046 C 
HETATM   17  C21 UNL     1      17.516   9.887 -12.022  1.00  0.00     0.043 C 
ENDROOT
BRANCH   1  18
HETATM   18  C5  UNL     1      19.249  14.486  -4.531  1.00  0.00     0.039 C 
BRANCH  18  19
HETATM   19  C4  UNL     1      18.082  14.311  -3.552  1.00  0.00     0.005 C 
BRANCH  19  20
HETATM   20  C3  UNL     1      18.112  12.965  -2.819  1.00  0.00    -0.000 C 
BRANCH  20  21
HETATM   21  C2  UNL     1      17.210  11.940  -3.508  1.00  0.00    -0.005 C 
HETATM   22  C1  UNL     1      18.022  10.826  -4.148  1.00  0.00     0.005 C 
ENDBRANCH  20  21
ENDBRANCH  19  20
ENDBRANCH  18  19
ENDBRANCH   1  18
BRANCH   3  23
HETATM   23  O2  UNL     1      20.517  13.218  -9.109  1.00  0.00    -0.360 OA
HETATM   24  H30 UNL     1      20.101  12.966  -9.948  1.00  0.00     0.217 HD
ENDBRANCH   3  23
TORSDOF 5
ENDMDL
MODEL 2
REMARK VINA RESULT:      -6.1     20.512     23.367
REMARK  5 active torsions:
REMARK  status: ('A' for Active; 'I' for Inactive)
REMARK    1  A    between atoms: C2_2  and  C3_3 
REMARK    2  A    between atoms: C3_3  and  C4_4 
REMARK    3  A    between atoms: C4_4  and  C5_5 
REMARK    4  A    between atoms: C5_5  and  C6_6 
REMARK    5  A    between atoms: C8_8  and  O2_23 
ROOT
HETATM    1  C6  UNL     1       7.052  -7.176  -5.286  1.00  0.00    -0.053 A 
HETATM    2  C7  UNL     1       8.415  -7.422  -5.102  1.00  0.00     0.044 A 
HETATM    3  C8  UNL     1       8.991  -7.256  -3.841  1.00  0.00     0.075 A 
HETATM    4  C9  UNL     1       8.233  -6.838  -2.737  1.00  0.00     0.013 A 
HETATM    5  C10 UNL     1       8.864  -6.661  -1.376  1.00  0.00     0.035 C 
HETATM    6  C11 UNL     1       9.793  -5.427  -1.347  1.00  0.00     0.043 C 
HETATM    7  C12 UNL     1      10.084  -4.880   0.028  1.00  0.00    -0.087 C 
HETATM    8  C13 UNL     1       9.458  -5.333   1.125  1.00  0.00    -0.024 C 
HETATM    9  C14 UNL     1       8.400  -6.392   1.101  1.00  0.00     0.035 C 
HETATM   10  C15 UNL     1       7.782  -6.675  -0.281  1.00  0.00     0.032 C 
HETATM   11  C16 UNL     1       6.537  -5.823  -0.663  1.00  0.00     0.065 C 
HETATM   12  O1  UNL     1       6.005  -6.212  -1.945  1.00  0.00    -0.340 OA
HETATM   13  C17 UNL     1       6.873  -6.592  -2.928  1.00  0.00     0.079 A 
HETATM   14  C18 UNL     1       6.289  -6.765  -4.187  1.00  0.00     0.044 A 
HETATM   15  C19 UNL     1       5.380  -6.117   0.316  1.00  0.00     0.046 C 
HETATM   16  C20 UNL     1       6.736  -4.302  -0.688  1.00  0.00     0.046 C 
HETATM   17  C21 UNL     1      11.126  -3.799   0.093  1.00  0.00     0.043 C 
ENDROOT
BRANCH   1  18
HETATM   18  C5  UNL     1       6.409  -7.363  -6.639  1.00  0.00     0.039 C 
BRANCH  18  19
HETATM   19  C4  UNL     1       5.149  -6.514  -6.846  1.00  0.00     0.005 C 
BRANCH  19  20
HETATM   20  C3  UNL     1       4.973  -6.048  -8.295  1.00  0.00    -0.000 C 
BRANCH  20  21
HETATM   21  C2  UNL     1       5.360  -7.150  -9.283  1.00  0.00    -0.005 C 
HETATM   22  C1  UNL     1       4.286  -7.353 -10.339  1.00  0.00     0.005 C 
ENDBRANCH  20  21
ENDBRANCH  19  20
ENDBRANCH  18  19
ENDBRANCH   1  18
BRANCH   3  23
HETATM   23  O2  UNL     1      10.323  -7.514  -3.668  1.00  0.00    -0.360 OA
HETATM   24  H30 UNL     1      10.654  -7.990  -4.446  1.00  0.00     0.217 HD
ENDBRANCH   3  23
TORSDOF 5
ENDMDL
MODEL 3
REMARK VINA RESULT:      -5.8     21.061     23.744
REMARK  5 active torsions:
REMARK  status: ('A' for Active; 'I' for Inactive)
REMARK    1  A    between atoms: C2_2  and  C3_3 
REMARK    2  A    between atoms: C3_3  and  C4_4 
REMARK    3  A    between atoms: C4_4  and  C5_5 
REMARK    4  A    between atoms: C5_5  and  C6_6 
REMARK    5  A    between atoms: C8_8  and  O2_23 
ROOT
HETATM    1  C6  UNL     1       7.157  -7.342  -5.208  1.00  0.00    -0.053 A 
HETATM    2  C7  UNL     1       8.528  -7.539  -5.021  1.00  0.00     0.044 A 
HETATM    3  C8  UNL     1       9.097  -7.333  -3.762  1.00  0.00     0.075 A 
HETATM    4  C9  UNL     1       8.326  -6.922  -2.665  1.00  0.00     0.013 A 
HETATM    5  C10 UNL     1       8.950  -6.702  -1.308  1.00  0.00     0.035 C 
HETATM    6  C11 UNL     1       9.837  -5.437  -1.299  1.00  0.00     0.043 C 
HETATM    7  C12 UNL     1      10.110  -4.858   0.066  1.00  0.00    -0.087 C 
HETATM    8  C13 UNL     1       9.499  -5.314   1.171  1.00  0.00    -0.024 C 
HETATM    9  C14 UNL     1       8.476  -6.408   1.164  1.00  0.00     0.035 C 
HETATM   10  C15 UNL     1       7.868  -6.734  -0.212  1.00  0.00     0.032 C 
HETATM   11  C16 UNL     1       6.597  -5.930  -0.608  1.00  0.00     0.065 C 
HETATM   12  O1  UNL     1       6.077  -6.357  -1.883  1.00  0.00    -0.340 OA
HETATM   13  C17 UNL     1       6.958  -6.725  -2.860  1.00  0.00     0.079 A 
HETATM   14  C18 UNL     1       6.381  -6.938  -4.116  1.00  0.00     0.044 A 
HETATM   15  C19 UNL     1       5.449  -6.246   0.377  1.00  0.00     0.046 C 
HETATM   16  C20 UNL     1       6.745  -4.404  -0.658  1.00  0.00     0.046 C 
HETATM   17  C21 UNL     1      11.115  -3.743   0.114  1.00  0.00     0.043 C 
ENDROOT
BRANCH   1  18
HETATM   18  C5  UNL     1       6.522  -7.572  -6.558  1.00  0.00     0.039 C 
BRANCH  18  19
HETATM   19  C4  UNL     1       5.366  -8.580  -6.532  1.00  0.00     0.005 C 
BRANCH  19  20
HETATM   20  C3  UNL     1       5.842 -10.037  -6.548  1.00  0.00    -0.000 C 
BRANCH  20  21
HETATM   21  C2  UNL     1       5.706 -10.677  -5.165  1.00  0.00    -0.005 C 
HETATM   22  C1  UNL     1       7.065 -10.981  -4.557  1.00  0.00     0.005 C 
ENDBRANCH  20  21
ENDBRANCH  19  20
ENDBRANCH  18  19
ENDBRANCH   1  18
BRANCH   3  23
HETATM   23  O2  UNL     1      10.437  -7.544  -3.585  1.00  0.00    -0.360 OA
HETATM   24  H30 UNL     1      10.927  -6.984  -4.209  1.00  0.00     0.217 HD
ENDBRANCH   3  23
TORSDOF 5
ENDMDL
MODEL 4
REMARK VINA RESULT:      -5.8     21.328     23.169
REMARK  5 active torsions:
REMARK  status: ('A' for Active; 'I' for Inactive)
REMARK    1  A    between atoms: C2_2  and  C3_3 
REMARK    2  A    between atoms: C3_3  and  C4_4 
REMARK    3  A    between atoms: C4_4  and  C5_5 
REMARK    4  A    between atoms: C5_5  and  C6_6 
REMARK    5  A    between atoms: C8_8  and  O2_23 
ROOT
HETATM    1  C6  UNL     1       9.140  -5.700  -2.756  1.00  0.00    -0.053 A 
HETATM    2  C7  UNL     1       9.724  -6.870  -3.251  1.00  0.00     0.044 A 
HETATM    3  C8  UNL     1       9.052  -7.636  -4.206  1.00  0.00     0.075 A 
HETATM    4  C9  UNL     1       7.787  -7.266  -4.687  1.00  0.00     0.013 A 
HETATM    5  C10 UNL     1       7.068  -8.101  -5.720  1.00  0.00     0.035 C 
HETATM    6  C11 UNL     1       6.572  -9.432  -5.115  1.00  0.00     0.043 C 
HETATM    7  C12 UNL     1       5.459 -10.105  -5.880  1.00  0.00    -0.087 C 
HETATM    8  C13 UNL     1       4.843  -9.513  -6.915  1.00  0.00    -0.024 C 
HETATM    9  C14 UNL     1       5.168  -8.132  -7.396  1.00  0.00     0.035 C 
HETATM   10  C15 UNL     1       5.977  -7.265  -6.415  1.00  0.00     0.032 C 
HETATM   11  C16 UNL     1       5.149  -6.414  -5.409  1.00  0.00     0.065 C 
HETATM   12  O1  UNL     1       6.002  -5.596  -4.582  1.00  0.00    -0.340 OA
HETATM   13  C17 UNL     1       7.209  -6.098  -4.188  1.00  0.00     0.079 A 
HETATM   14  C18 UNL     1       7.880  -5.323  -3.237  1.00  0.00     0.044 A 
HETATM   15  C19 UNL     1       4.291  -5.384  -6.176  1.00  0.00     0.046 C 
HETATM   16  C20 UNL     1       4.207  -7.187  -4.478  1.00  0.00     0.046 C 
HETATM   17  C21 UNL     1       5.089 -11.485  -5.415  1.00  0.00     0.043 C 
ENDROOT
BRANCH   1  18
HETATM   18  C5  UNL     1       9.856  -4.853  -1.734  1.00  0.00     0.039 C 
BRANCH  18  19
HETATM   19  C4  UNL     1      10.208  -5.606  -0.445  1.00  0.00     0.005 C 
BRANCH  19  20
HETATM   20  C3  UNL     1       9.419  -5.113   0.772  1.00  0.00    -0.000 C 
BRANCH  20  21
HETATM   21  C2  UNL     1       8.862  -6.285   1.582  1.00  0.00    -0.005 C 
HETATM   22  C1  UNL     1       9.066  -7.606   0.861  1.00  0.00     0.005 C 
ENDBRANCH  20  21
ENDBRANCH  19  20
ENDBRANCH  18  19
ENDBRANCH   1  18
BRANCH   3  23
HETATM   23  O2  UNL     1       9.639  -8.771  -4.695  1.00  0.00    -0.360 OA
HETATM   24  H30 UNL     1      10.565  -8.793  -4.407  1.00  0.00     0.217 HD
ENDBRANCH   3  23
TORSDOF 5
ENDMDL
MODEL 5
REMARK VINA RESULT:      -5.7     32.901     35.964
REMARK  5 active torsions:
REMARK  status: ('A' for Active; 'I' for Inactive)
REMARK    1  A    between atoms: C2_2  and  C3_3 
REMARK    2  A    between atoms: C3_3  and  C4_4 
REMARK    3  A    between atoms: C4_4  and  C5_5 
REMARK    4  A    between atoms: C5_5  and  C6_6 
REMARK    5  A    between atoms: C8_8  and  O2_23 
ROOT
HETATM    1  C6  UNL     1       7.175 -15.960  10.274  1.00  0.00    -0.053 A 
HETATM    2  C7  UNL     1       7.664 -17.219   9.913  1.00  0.00     0.044 A 
HETATM    3  C8  UNL     1       8.935 -17.621  10.330  1.00  0.00     0.075 A 
HETATM    4  C9  UNL     1       9.751 -16.786  11.108  1.00  0.00     0.013 A 
HETATM    5  C10 UNL     1      11.124 -17.229  11.555  1.00  0.00     0.035 C 
HETATM    6  C11 UNL     1      12.110 -17.274  10.367  1.00  0.00     0.043 C 
HETATM    7  C12 UNL     1      13.569 -17.226  10.748  1.00  0.00    -0.087 C 
HETATM    8  C13 UNL     1      13.972 -17.002  12.008  1.00  0.00    -0.024 C 
HETATM    9  C14 UNL     1      13.035 -16.751  13.148  1.00  0.00     0.035 C 
HETATM   10  C15 UNL     1      11.595 -16.379  12.749  1.00  0.00     0.032 C 
HETATM   11  C16 UNL     1      11.309 -14.863  12.551  1.00  0.00     0.065 C 
HETATM   12  O1  UNL     1       9.921 -14.624  12.240  1.00  0.00    -0.340 OA
HETATM   13  C17 UNL     1       9.257 -15.530  11.464  1.00  0.00     0.079 A 
HETATM   14  C18 UNL     1       7.983 -15.125  11.056  1.00  0.00     0.044 A 
HETATM   15  C19 UNL     1      11.519 -14.111  13.883  1.00  0.00     0.046 C 
HETATM   16  C20 UNL     1      12.149 -14.145  11.487  1.00  0.00     0.046 C 
HETATM   17  C21 UNL     1      14.543 -17.453   9.627  1.00  0.00     0.043 C 
ENDROOT
BRANCH   1  18
HETATM   18  C5  UNL     1       5.800 -15.514   9.844  1.00  0.00     0.039 C 
BRANCH  18  19
HETATM   19  C4  UNL     1       5.394 -16.017   8.454  1.00  0.00     0.005 C 
BRANCH  19  20
HETATM   20  C3  UNL     1       5.174 -14.884   7.446  1.00  0.00    -0.000 C 
BRANCH  20  21
HETATM   21  C2  UNL     1       5.818 -13.583   7.928  1.00  0.00    -0.005 C 
HETATM   22  C1  UNL     1       4.925 -12.384   7.651  1.00  0.00     0.005 C 
ENDBRANCH  20  21
ENDBRANCH  19  20
ENDBRANCH  18  19
ENDBRANCH   1  18
BRANCH   3  23
HETATM   23  O2  UNL     1       9.398 -18.861   9.984  1.00  0.00    -0.360 OA
HETATM   24  H30 UNL     1      10.335 -18.789   9.743  1.00  0.00     0.217 HD
ENDBRANCH   3  23
TORSDOF 5
ENDMDL
MODEL 6
REMARK VINA RESULT:      -5.7     20.887     23.678
REMARK  5 active torsions:
REMARK  status: ('A' for Active; 'I' for Inactive)
REMARK    1  A    between atoms: C2_2  and  C3_3 
REMARK    2  A    between atoms: C3_3  and  C4_4 
REMARK    3  A    between atoms: C4_4  and  C5_5 
REMARK    4  A    between atoms: C5_5  and  C6_6 
REMARK    5  A    between atoms: C8_8  and  O2_23 
ROOT
HETATM    1  C6  UNL     1       7.064  -7.987  -4.995  1.00  0.00    -0.053 A 
HETATM    2  C7  UNL     1       6.352  -6.796  -4.828  1.00  0.00     0.044 A 
HETATM    3  C8  UNL     1       6.777  -5.853  -3.889  1.00  0.00     0.075 A 
HETATM    4  C9  UNL     1       7.910  -6.071  -3.092  1.00  0.00     0.013 A 
HETATM    5  C10 UNL     1       8.362  -5.046  -2.079  1.00  0.00     0.035 C 
HETATM    6  C11 UNL     1       7.392  -4.981  -0.878  1.00  0.00     0.043 C 
HETATM    7  C12 UNL     1       7.971  -4.378   0.377  1.00  0.00    -0.087 C 
HETATM    8  C13 UNL     1       9.272  -4.069   0.488  1.00  0.00    -0.024 C 
HETATM    9  C14 UNL     1      10.279  -4.313  -0.592  1.00  0.00     0.035 C 
HETATM   10  C15 UNL     1       9.836  -5.285  -1.701  1.00  0.00     0.032 C 
HETATM   11  C16 UNL     1      10.152  -6.789  -1.459  1.00  0.00     0.065 C 
HETATM   12  O1  UNL     1       9.750  -7.600  -2.583  1.00  0.00    -0.340 OA
HETATM   13  C17 UNL     1       8.615  -7.263  -3.262  1.00  0.00     0.079 A 
HETATM   14  C18 UNL     1       8.199  -8.207  -4.206  1.00  0.00     0.044 A 
HETATM   15  C19 UNL     1      11.680  -6.999  -1.387  1.00  0.00     0.046 C 
HETATM   16  C20 UNL     1       9.547  -7.418  -0.198  1.00  0.00     0.046 C 
HETATM   17  C21 UNL     1       6.996  -4.138   1.495  1.00  0.00     0.043 C 
ENDROOT
BRANCH   1  18
HETATM   18  C5  UNL     1       6.627  -9.011  -6.014  1.00  0.00     0.039 C 
BRANCH  18  19
HETATM   19  C4  UNL     1       6.572 -10.442  -5.466  1.00  0.00     0.005 C 
BRANCH  19  20
HETATM   20  C3  UNL     1       7.279 -11.458  -6.370  1.00  0.00    -0.000 C 
BRANCH  20  21
HETATM   21  C2  UNL     1       8.670 -11.800  -5.836  1.00  0.00    -0.005 C 
HETATM   22  C1  UNL     1       8.688 -11.845  -4.317  1.00  0.00     0.005 C 
ENDBRANCH  20  21
ENDBRANCH  19  20
ENDBRANCH  18  19
ENDBRANCH   1  18
BRANCH   3  23
HETATM   23  O2  UNL     1       6.082  -4.684  -3.745  1.00  0.00    -0.360 OA
HETATM   24  H30 UNL     1       6.408  -4.221  -2.957  1.00  0.00     0.217 HD
ENDBRANCH   3  23
TORSDOF 5
ENDMDL
