REMARK VINA RESULT:      -6.3      0.000      0.000
REMARK  5 active torsions:
REMARK  status: ('A' for Active; 'I' for Inactive)
REMARK    1  A    between atoms: C2_2  and  C3_3 
REMARK    2  A    between atoms: C3_3  and  C4_4 
REMARK    3  A    between atoms: C4_4  and  C5_5 
REMARK    4  A    between atoms: C5_5  and  C6_6 
REMARK    5  A    between atoms: C8_8  and  O2_23 
REMARK viewdock state: V
HETATM    1  C6  UNL     1      15.776  12.450  -5.121  1.00  0.00    -0.053 A 
HETATM    2  C7  UNL     1      15.315  11.263  -5.695  1.00  0.00     0.044 A 
HETATM    3  C8  UNL     1      15.162  11.162  -7.083  1.00  0.00     0.075 A 
HETATM    4  C9  UNL     1      15.502  12.217  -7.946  1.00  0.00     0.017 A 
HETATM    5  C10 UNL     1      15.875  13.429  -7.347  1.00  0.00     0.080 A 
HETATM    6  C11 UNL     1      16.040  13.536  -5.959  1.00  0.00     0.044 A 
HETATM    7  O1  UNL     1      16.086  14.601  -8.023  1.00  0.00    -0.340 OA
HETATM    8  C12 UNL     1      15.628  14.661  -9.389  1.00  0.00     0.065 C 
HETATM    9  C13 UNL     1      16.037  13.367 -10.117  1.00  0.00     0.032 C 
HETATM   10  C14 UNL     1      15.370  12.138  -9.457  1.00  0.00     0.054 C 
HETATM   11  C15 UNL     1      15.916  10.889 -10.128  1.00  0.00    -0.014 C 
HETATM   12  C16 UNL     1      16.382  10.863 -11.392  1.00  0.00    -0.087 C 
HETATM   13  C17 UNL     1      16.415  12.095 -12.262  1.00  0.00     0.034 C 
HETATM   14  C18 UNL     1      15.761  13.330 -11.628  1.00  0.00     0.013 C 
HETATM   15  C19 UNL     1      16.912   9.606 -12.019  1.00  0.00     0.043 C 
HETATM   16  C20 UNL     1      14.121  14.966  -9.407  1.00  0.00     0.046 C 
HETATM   17  C21 UNL     1      16.363  15.879  -9.982  1.00  0.00     0.046 C 
HETATM   18  C5  UNL     1      15.961  12.566  -3.630  1.00  0.00     0.039 C 
HETATM   19  C4  UNL     1      16.653  13.864  -3.195  1.00  0.00     0.005 C 
HETATM   20  C3  UNL     1      18.091  13.639  -2.713  1.00  0.00    -0.000 C 
HETATM   21  C2  UNL     1      19.036  14.786  -3.081  1.00  0.00    -0.005 C 
HETATM   22  C1  UNL     1      19.304  14.897  -4.573  1.00  0.00     0.005 C 
HETATM   23  O2  UNL     1      14.626  10.012  -7.597  1.00  0.00    -0.360 OA
HETATM   24  H30 UNL     1      14.434   9.399  -6.869  1.00  0.00     0.217 HD
ENDMDL
REMARK VINA RESULT:      -6.3      1.752      6.379
REMARK  5 active torsions:
REMARK  status: ('A' for Active; 'I' for Inactive)
REMARK    1  A    between atoms: C2_2  and  C3_3 
REMARK    2  A    between atoms: C3_3  and  C4_4 
REMARK    3  A    between atoms: C4_4  and  C5_5 
REMARK    4  A    between atoms: C5_5  and  C6_6 
REMARK    5  A    between atoms: C8_8  and  O2_23 
REMARK viewdock state: V
HETATM    1  C6  UNL     1      16.677  11.733  -9.681  1.00  0.00    -0.053 A 
HETATM    2  C7  UNL     1      15.542  10.975  -9.381  1.00  0.00     0.044 A 
HETATM    3  C8  UNL     1      15.115  10.836  -8.055  1.00  0.00     0.075 A 
HETATM    4  C9  UNL     1      15.772  11.479  -6.993  1.00  0.00     0.017 A 
HETATM    5  C10 UNL     1      16.959  12.158  -7.302  1.00  0.00     0.080 A 
HETATM    6  C11 UNL     1      17.389  12.310  -8.627  1.00  0.00     0.044 A 
HETATM    7  O1  UNL     1      17.809  12.705  -6.376  1.00  0.00    -0.340 OA
HETATM    8  C12 UNL     1      17.616  12.318  -5.000  1.00  0.00     0.065 C 
HETATM    9  C13 UNL     1      16.114  12.370  -4.666  1.00  0.00     0.032 C 
HETATM   10  C14 UNL     1      15.326  11.369  -5.545  1.00  0.00     0.054 C 
HETATM   11  C15 UNL     1      13.845  11.564  -5.267  1.00  0.00    -0.014 C 
HETATM   12  C16 UNL     1      13.359  12.038  -4.103  1.00  0.00    -0.087 C 
HETATM   13  C17 UNL     1      14.258  12.436  -2.958  1.00  0.00     0.034 C 
HETATM   14  C18 UNL     1      15.744  12.134  -3.193  1.00  0.00     0.013 C 
HETATM   15  C19 UNL     1      11.886  12.214  -3.868  1.00  0.00     0.043 C 
HETATM   16  C20 UNL     1      18.287  10.956  -4.758  1.00  0.00     0.046 C 
HETATM   17  C21 UNL     1      18.393  13.377  -4.197  1.00  0.00     0.046 C 
HETATM   18  C5  UNL     1      17.138  11.904 -11.106  1.00  0.00     0.039 C 
HETATM   19  C4  UNL     1      16.187  12.746 -11.964  1.00  0.00     0.005 C 
HETATM   20  C3  UNL     1      16.115  14.209 -11.512  1.00  0.00    -0.000 C 
HETATM   21  C2  UNL     1      14.723  14.621 -11.023  1.00  0.00    -0.005 C 
HETATM   22  C1  UNL     1      14.620  14.737  -9.511  1.00  0.00     0.005 C 
HETATM   23  O2  UNL     1      14.050  10.016  -7.796  1.00  0.00    -0.360 OA
HETATM   24  H30 UNL     1      13.278  10.560  -7.572  1.00  0.00     0.217 HD
ENDMDL
REMARK VINA RESULT:      -6.0     32.609     35.347
REMARK  5 active torsions:
REMARK  status: ('A' for Active; 'I' for Inactive)
REMARK    1  A    between atoms: C2_2  and  C3_3 
REMARK    2  A    between atoms: C3_3  and  C4_4 
REMARK    3  A    between atoms: C4_4  and  C5_5 
REMARK    4  A    between atoms: C5_5  and  C6_6 
REMARK    5  A    between atoms: C8_8  and  O2_23 
REMARK viewdock state: V
HETATM    1  C6  UNL     1      14.229 -17.788   9.002  1.00  0.00    -0.053 A 
HETATM    2  C7  UNL     1      13.345 -18.864   8.885  1.00  0.00     0.044 A 
HETATM    3  C8  UNL     1      12.082 -18.809   9.484  1.00  0.00     0.075 A 
HETATM    4  C9  UNL     1      11.639 -17.672  10.179  1.00  0.00     0.017 A 
HETATM    5  C10 UNL     1      12.571 -16.641  10.364  1.00  0.00     0.080 A 
HETATM    6  C11 UNL     1      13.835 -16.683   9.759  1.00  0.00     0.044 A 
HETATM    7  O1  UNL     1      12.366 -15.535  11.146  1.00  0.00    -0.340 OA
HETATM    8  C12 UNL     1      11.242 -15.569  12.049  1.00  0.00     0.065 C 
HETATM    9  C13 UNL     1      10.011 -16.118  11.303  1.00  0.00     0.032 C 
HETATM   10  C14 UNL     1      10.268 -17.567  10.824  1.00  0.00     0.054 C 
HETATM   11  C15 UNL     1       9.079 -18.002   9.984  1.00  0.00    -0.014 C 
HETATM   12  C16 UNL     1       7.836 -17.501  10.130  1.00  0.00    -0.087 C 
HETATM   13  C17 UNL     1       7.514 -16.437  11.151  1.00  0.00     0.034 C 
HETATM   14  C18 UNL     1       8.684 -16.079  12.076  1.00  0.00     0.013 C 
HETATM   15  C19 UNL     1       6.688 -17.960   9.279  1.00  0.00     0.043 C 
HETATM   16  C20 UNL     1      11.632 -16.347  13.316  1.00  0.00     0.046 C 
HETATM   17  C21 UNL     1      11.029 -14.096  12.445  1.00  0.00     0.046 C 
HETATM   18  C5  UNL     1      15.586 -17.827   8.347  1.00  0.00     0.039 C 
HETATM   19  C4  UNL     1      15.973 -16.516   7.653  1.00  0.00     0.005 C 
HETATM   20  C3  UNL     1      16.020 -16.642   6.126  1.00  0.00    -0.000 C 
HETATM   21  C2  UNL     1      14.697 -16.273   5.449  1.00  0.00    -0.005 C 
HETATM   22  C1  UNL     1      14.036 -17.439   4.732  1.00  0.00     0.005 C 
HETATM   23  O2  UNL     1      11.281 -19.918   9.418  1.00  0.00    -0.360 OA
HETATM   24  H30 UNL     1      10.352 -19.636   9.382  1.00  0.00     0.217 HD
ENDMDL
REMARK VINA RESULT:      -6.0     19.788     22.697
REMARK  5 active torsions:
REMARK  status: ('A' for Active; 'I' for Inactive)
REMARK    1  A    between atoms: C2_2  and  C3_3 
REMARK    2  A    between atoms: C3_3  and  C4_4 
REMARK    3  A    between atoms: C4_4  and  C5_5 
REMARK    4  A    between atoms: C5_5  and  C6_6 
REMARK    5  A    between atoms: C8_8  and  O2_23 
REMARK viewdock state: V
HETATM    1  C6  UNL     1       8.658  -6.775  -3.697  1.00  0.00    -0.053 A 
HETATM    2  C7  UNL     1       9.670  -6.863  -2.738  1.00  0.00     0.044 A 
HETATM    3  C8  UNL     1       9.489  -6.307  -1.466  1.00  0.00     0.075 A 
HETATM    4  C9  UNL     1       8.287  -5.686  -1.092  1.00  0.00     0.017 A 
HETATM    5  C10 UNL     1       7.319  -5.525  -2.094  1.00  0.00     0.080 A 
HETATM    6  C11 UNL     1       7.487  -6.088  -3.367  1.00  0.00     0.044 A 
HETATM    7  O1  UNL     1       6.161  -4.808  -1.952  1.00  0.00    -0.340 OA
HETATM    8  C12 UNL     1       6.063  -3.941  -0.804  1.00  0.00     0.065 C 
HETATM    9  C13 UNL     1       6.559  -4.694   0.444  1.00  0.00     0.032 C 
HETATM   10  C14 UNL     1       8.047  -5.090   0.284  1.00  0.00     0.054 C 
HETATM   11  C15 UNL     1       8.437  -5.943   1.479  1.00  0.00    -0.014 C 
HETATM   12  C16 UNL     1       7.839  -5.862   2.684  1.00  0.00    -0.087 C 
HETATM   13  C17 UNL     1       6.701  -4.908   2.954  1.00  0.00     0.034 C 
HETATM   14  C18 UNL     1       6.381  -3.966   1.785  1.00  0.00     0.013 C 
HETATM   15  C19 UNL     1       8.257  -6.723   3.840  1.00  0.00     0.043 C 
HETATM   16  C20 UNL     1       6.798  -2.623  -1.100  1.00  0.00     0.046 C 
HETATM   17  C21 UNL     1       4.559  -3.628  -0.692  1.00  0.00     0.046 C 
HETATM   18  C5  UNL     1       8.832  -7.384  -5.064  1.00  0.00     0.039 C 
HETATM   19  C4  UNL     1       7.508  -7.725  -5.760  1.00  0.00     0.005 C 
HETATM   20  C3  UNL     1       7.113  -9.197  -5.598  1.00  0.00    -0.000 C 
HETATM   21  C2  UNL     1       8.180 -10.033  -4.885  1.00  0.00    -0.005 C 
HETATM   22  C1  UNL     1       7.742 -10.538  -3.519  1.00  0.00     0.005 C 
HETATM   23  O2  UNL     1      10.538  -6.341  -0.586  1.00  0.00    -0.360 OA
HETATM   24  H30 UNL     1      11.265  -6.849  -0.980  1.00  0.00     0.217 HD
ENDMDL
REMARK VINA RESULT:      -5.9     20.586     22.131
REMARK  5 active torsions:
REMARK  status: ('A' for Active; 'I' for Inactive)
REMARK    1  A    between atoms: C2_2  and  C3_3 
REMARK    2  A    between atoms: C3_3  and  C4_4 
REMARK    3  A    between atoms: C4_4  and  C5_5 
REMARK    4  A    between atoms: C5_5  and  C6_6 
REMARK    5  A    between atoms: C8_8  and  O2_23 
REMARK viewdock state: V
HETATM    1  C6  UNL     1       8.716  -5.743   0.027  1.00  0.00    -0.053 A 
HETATM    2  C7  UNL     1       8.147  -4.622  -0.582  1.00  0.00     0.044 A 
HETATM    3  C8  UNL     1       7.675  -4.697  -1.898  1.00  0.00     0.075 A 
HETATM    4  C9  UNL     1       7.714  -5.892  -2.634  1.00  0.00     0.017 A 
HETATM    5  C10 UNL     1       8.371  -6.980  -2.040  1.00  0.00     0.080 A 
HETATM    6  C11 UNL     1       8.837  -6.917  -0.719  1.00  0.00     0.044 A 
HETATM    7  O1  UNL     1       8.641  -8.166  -2.669  1.00  0.00    -0.340 OA
HETATM    8  C12 UNL     1       8.490  -8.197  -4.103  1.00  0.00     0.065 C 
HETATM    9  C13 UNL     1       7.172  -7.502  -4.489  1.00  0.00     0.032 C 
HETATM   10  C14 UNL     1       7.193  -6.017  -4.055  1.00  0.00     0.054 C 
HETATM   11  C15 UNL     1       5.823  -5.425  -4.338  1.00  0.00    -0.014 C 
HETATM   12  C16 UNL     1       4.993  -5.884  -5.296  1.00  0.00    -0.087 C 
HETATM   13  C17 UNL     1       5.353  -7.054  -6.178  1.00  0.00     0.034 C 
HETATM   14  C18 UNL     1       6.779  -7.580  -5.972  1.00  0.00     0.013 C 
HETATM   15  C19 UNL     1       3.646  -5.269  -5.544  1.00  0.00     0.043 C 
HETATM   16  C20 UNL     1       9.750  -7.607  -4.757  1.00  0.00     0.046 C 
HETATM   17  C21 UNL     1       8.440  -9.698  -4.446  1.00  0.00     0.046 C 
HETATM   18  C5  UNL     1       9.212  -5.681   1.449  1.00  0.00     0.039 C 
HETATM   19  C4  UNL     1       8.590  -6.742   2.365  1.00  0.00     0.005 C 
HETATM   20  C3  UNL     1       7.619  -6.148   3.391  1.00  0.00    -0.000 C 
HETATM   21  C2  UNL     1       6.359  -5.555   2.754  1.00  0.00    -0.005 C 
HETATM   22  C1  UNL     1       5.992  -4.183   3.297  1.00  0.00     0.005 C 
HETATM   23  O2  UNL     1       7.203  -3.554  -2.486  1.00  0.00    -0.360 OA
HETATM   24  H30 UNL     1       6.339  -3.738  -2.889  1.00  0.00     0.217 HD
ENDMDL
REMARK VINA RESULT:      -5.9     32.846     35.710
REMARK  5 active torsions:
REMARK  status: ('A' for Active; 'I' for Inactive)
REMARK    1  A    between atoms: C2_2  and  C3_3 
REMARK    2  A    between atoms: C3_3  and  C4_4 
REMARK    3  A    between atoms: C4_4  and  C5_5 
REMARK    4  A    between atoms: C5_5  and  C6_6 
REMARK    5  A    between atoms: C8_8  and  O2_23 
REMARK viewdock state: V
HETATM    1  C6  UNL     1       8.527 -16.534  10.879  1.00  0.00    -0.053 A 
HETATM    2  C7  UNL     1       9.464 -17.349  10.240  1.00  0.00     0.044 A 
HETATM    3  C8  UNL     1      10.813 -17.301  10.609  1.00  0.00     0.075 A 
HETATM    4  C9  UNL     1      11.268 -16.476  11.651  1.00  0.00     0.017 A 
HETATM    5  C10 UNL     1      10.332 -15.600  12.218  1.00  0.00     0.080 A 
HETATM    6  C11 UNL     1       8.977 -15.649  11.861  1.00  0.00     0.044 A 
HETATM    7  O1  UNL     1      10.631 -14.621  13.129  1.00  0.00    -0.340 OA
HETATM    8  C12 UNL     1      12.024 -14.292  13.303  1.00  0.00     0.065 C 
HETATM    9  C13 UNL     1      12.844 -15.592  13.400  1.00  0.00     0.032 C 
HETATM   10  C14 UNL     1      12.719 -16.412  12.094  1.00  0.00     0.054 C 
HETATM   11  C15 UNL     1      13.432 -17.737  12.302  1.00  0.00    -0.014 C 
HETATM   12  C16 UNL     1      14.451 -17.911  13.167  1.00  0.00    -0.087 C 
HETATM   13  C17 UNL     1      14.973 -16.789  14.030  1.00  0.00     0.034 C 
HETATM   14  C18 UNL     1      14.333 -15.425  13.741  1.00  0.00     0.013 C 
HETATM   15  C19 UNL     1      15.130 -19.239  13.341  1.00  0.00     0.043 C 
HETATM   16  C20 UNL     1      12.462 -13.332  12.184  1.00  0.00     0.046 C 
HETATM   17  C21 UNL     1      12.067 -13.516  14.633  1.00  0.00     0.046 C 
HETATM   18  C5  UNL     1       7.069 -16.589  10.503  1.00  0.00     0.039 C 
HETATM   19  C4  UNL     1       6.549 -15.296   9.863  1.00  0.00     0.005 C 
HETATM   20  C3  UNL     1       5.079 -15.390   9.440  1.00  0.00    -0.000 C 
HETATM   21  C2  UNL     1       4.595 -14.163   8.663  1.00  0.00    -0.005 C 
HETATM   22  C1  UNL     1       5.657 -13.560   7.758  1.00  0.00     0.005 C 
HETATM   23  O2  UNL     1      11.710 -18.053   9.899  1.00  0.00    -0.360 OA
HETATM   24  H30 UNL     1      12.603 -17.888  10.243  1.00  0.00     0.217 HD
ENDMDL
