REMARK  Name = ligand9.pdb
REMARK  9 active torsions:
REMARK  status: ('A' for Active; 'I' for Inactive)
REMARK    1  A    between atoms: C1_1  and  C2_2
REMARK    2  A    between atoms: C2_2  and  C3_3
REMARK    3  A    between atoms: C3_3  and  C4_4
REMARK    4  A    between atoms: C4_4  and  C5_5
REMARK    5  A    between atoms: C5_5  and  C6_6
REMARK    6  A    between atoms: C8_8  and  O2_23
REMARK    7  A    between atoms: C12_13  and  C20_21
REMARK    8  A    between atoms: C12_13  and  C21_22
REMARK    9  A    between atoms: C16_17  and  C19_20
REMARK                            x       y       z     vdW  Elec       q    Type
REMARK                         _______ _______ _______ _____ _____    ______ ____
ROOT
ATOM      1  C6  UNL     1       2.085  -1.295  -0.883  0.00  0.00    +0.000 A 
ATOM      2  C7  UNL     1       1.549  -0.541  -1.929  0.00  0.00    +0.000 A 
ATOM      3  C8  UNL     1       0.210  -0.133  -1.894  0.00  0.00    +0.000 A 
ATOM      4  C9  UNL     1      -0.625  -0.423  -0.802  0.00  0.00    +0.000 A 
ATOM      5  C10 UNL     1      -0.097  -1.257   0.194  0.00  0.00    +0.000 A 
ATOM      6  C11 UNL     1       1.244  -1.661   0.171  0.00  0.00    +0.000 A 
ATOM      7  O1  UNL     1      -0.814  -1.768   1.243  0.00  0.00    +0.000 OA
ATOM      8  C12 UNL     1      -2.251  -1.672   1.165  0.00  0.00    +0.000 C 
ATOM      9  C13 UNL     1      -2.638  -0.257   0.696  0.00  0.00    +0.000 C 
ATOM     10  C14 UNL     1      -2.075   0.020  -0.719  0.00  0.00    +0.000 C 
ATOM     11  C15 UNL     1      -2.371   1.469  -1.067  0.00  0.00    +0.000 C 
ATOM     12  C16 UNL     1      -3.405   2.165  -0.554  0.00  0.00    +0.000 C 
ATOM     13  C17 UNL     1      -4.368   1.561   0.438  0.00  0.00    +0.000 C 
ATOM     14  C18 UNL     1      -4.140   0.067   0.704  0.00  0.00    +0.000 C 
ATOM     15  C19 UNL     1      -3.663   3.596  -0.927  0.00  0.00    +0.000 C 
ATOM     16  C20 UNL     1      -2.789  -2.815   0.288  0.00  0.00    +0.000 C 
ATOM     17  C21 UNL     1      -2.727  -1.920   2.608  0.00  0.00    +0.000 C 
ENDROOT
BRANCH   3  18
ATOM     18  O2  UNL     1      -0.297   0.530  -2.979  0.00  0.00    +0.000 OA
ATOM     19  H30 UNL     1       0.398   0.617  -3.651  0.00  0.00    +0.000 HD
ENDBRANCH   3  18
BRANCH   1  20
ATOM     20  C5  UNL     1       3.529  -1.726  -0.900  0.00  0.00    +0.000 C 
BRANCH  20  21
ATOM     21  C4  UNL     1       4.517  -0.579  -0.650  0.00  0.00    +0.000 C 
BRANCH  21  22
ATOM     22  C3  UNL     1       4.426  -0.015   0.772  0.00  0.00    +0.000 C 
BRANCH  22  24
ATOM     23  C1  UNL     1       5.418   2.280   0.261  0.00  0.00    +0.000 C 
ATOM     24  C2  UNL     1       5.522   1.007   1.086  0.00  0.00    +0.000 C 
ENDBRANCH  22  24
ENDBRANCH  21  22
ENDBRANCH  20  21
ENDBRANCH   1  20
TORSDOF 5
