@<TRIPOS>MOLECULE
thc8.pdb
53 55 1 0 0
SMALL
AMBER ff14SB


@<TRIPOS>ATOM
      1 C1          6.2170   -0.9440    1.4880 C.3       1 UNL   -0.0921
      2 C2          5.9510   -0.0390    0.2960 C.3       1 UNL   -0.0784
      3 C3          4.6400   -0.4030   -0.4020 C.3       1 UNL   -0.0824
      4 C4          4.3760    0.5150   -1.6000 C.3       1 UNL   -0.0724
      5 C5          3.1160    0.1310   -2.3840 C.3       1 UNL   -0.0401
      6 C6          1.8340    0.3480   -1.6190 C.ar      1 UNL   -0.0093
      7 C7          1.3470    1.6390   -1.3900 C.ar      1 UNL   -0.2490
      8 C8          0.1660    1.8220   -0.6690 C.ar      1 UNL    0.1591
      9 C9         -0.5630    0.7350   -0.1650 C.ar      1 UNL   -0.1783
     10 C10        -1.8400    0.9430    0.6140 C.3       1 UNL    0.0096
     11 C11        -2.9830    1.4260   -0.3060 C.3       1 UNL   -0.0402
     12 C12        -4.3740    1.2060    0.2350 C.2       1 UNL   -0.1094
     13 C13        -4.6020    0.5020    1.3550 C.2       1 UNL   -0.1832
     14 C14        -3.5230   -0.1540    2.1600 C.3       1 UNL   -0.0332
     15 C15        -2.1700   -0.3130    1.4420 C.3       1 UNL   -0.0757
     16 C16        -1.9740   -1.6270    0.6330 C.3       1 UNL    0.1638
     17 O1         -0.6540   -1.7000    0.0550 O.3       1 UNL   -0.3329
     18 C17        -0.0730   -0.5500   -0.3980 C.ar      1 UNL    0.1711
     19 C18         1.1140   -0.7400   -1.1130 C.ar      1 UNL   -0.1920
     20 C19        -2.0210   -2.8420    1.5860 C.3       1 UNL   -0.1036
     21 C20        -2.9840   -1.8920   -0.4910 C.3       1 UNL   -0.1036
     22 C21        -5.4880    1.8300   -0.5550 C.3       1 UNL   -0.0579
     23 O2         -0.2930    3.0900   -0.4370 O.3       1 UNL   -0.5001
     24 H1          5.4160   -0.8610    2.2300 H         1 UNL    0.0330
     25 H2          7.1590   -0.6670    1.9720 H         1 UNL    0.0330
     26 H3          6.2890   -1.9910    1.1770 H         1 UNL    0.0330
     27 H4          6.7850   -0.1220   -0.4110 H         1 UNL    0.0372
     28 H5          5.9150    1.0020    0.6360 H         1 UNL    0.0372
     29 H6          3.8170   -0.3260    0.3180 H         1 UNL    0.0452
     30 H7          4.6810   -1.4450   -0.7400 H         1 UNL    0.0452
     31 H8          5.2320    0.4600   -2.2840 H         1 UNL    0.0407
     32 H9          4.3110    1.5560   -1.2600 H         1 UNL    0.0407
     33 H10         3.0700    0.7290   -3.3040 H         1 UNL    0.0502
     34 H11         3.1880   -0.9130   -2.7130 H         1 UNL    0.0502
     35 H12         1.8980    2.4930   -1.7750 H         1 UNL    0.1330
     36 H13        -1.6550    1.7420    1.3480 H         1 UNL    0.0707
     37 H14        -2.8520    2.5010   -0.4840 H         1 UNL    0.0592
     38 H15        -2.9160    0.9570   -1.2950 H         1 UNL    0.0592
     39 H16        -5.6180    0.3870    1.7270 H         1 UNL    0.1210
     40 H17        -3.3730    0.4630    3.0560 H         1 UNL    0.0502
     41 H18        -3.8920   -1.1180    2.5220 H         1 UNL    0.0502
     42 H19        -1.4090   -0.3520    2.2380 H         1 UNL    0.0587
     43 H20         1.4760   -1.7540   -1.2680 H         1 UNL    0.1500
     44 H21        -3.0190   -3.0180    1.9960 H         1 UNL    0.0489
     45 H22        -1.7080   -3.7560    1.0660 H         1 UNL    0.0489
     46 H23        -1.3190   -2.7130    2.4180 H         1 UNL    0.0489
     47 H24        -2.8860   -1.1780   -1.3110 H         1 UNL    0.0489
     48 H25        -4.0160   -1.8900   -0.1310 H         1 UNL    0.0489
     49 H26        -2.7970   -2.8720   -0.9480 H         1 UNL    0.0489
     50 H27        -5.3610    2.9160   -0.5990 H         1 UNL    0.0414
     51 H28        -6.4700    1.6260   -0.1140 H         1 UNL    0.0414
     52 H29        -5.4940    1.4370   -1.5760 H         1 UNL    0.0414
     53 H30         0.3310    3.7250   -0.8230 H         1 UNL    0.4190
@<TRIPOS>BOND
     1    1    2 1
     2    1   24 1
     3    1   25 1
     4    1   26 1
     5    2    3 1
     6    2   27 1
     7    2   28 1
     8    3    4 1
     9    3   29 1
    10    3   30 1
    11    4    5 1
    12    4   31 1
    13    4   32 1
    14    5    6 1
    15    5   33 1
    16    5   34 1
    17    6    7 ar
    18    6   19 ar
    19    7    8 ar
    20    7   35 1
    21    8    9 ar
    22    8   23 1
    23    9   10 1
    24    9   18 ar
    25   10   11 1
    26   10   15 1
    27   10   36 1
    28   11   12 1
    29   11   37 1
    30   11   38 1
    31   12   13 2
    32   12   22 1
    33   13   14 1
    34   13   39 1
    35   14   15 1
    36   14   40 1
    37   14   41 1
    38   15   16 1
    39   15   42 1
    40   16   17 1
    41   16   20 1
    42   16   21 1
    43   17   18 1
    44   18   19 ar
    45   19   43 1
    46   20   44 1
    47   20   45 1
    48   20   46 1
    49   21   47 1
    50   21   48 1
    51   21   49 1
    52   22   50 1
    53   22   51 1
    54   22   52 1
    55   23   53 1
@<TRIPOS>SUBSTRUCTURE
     1 UNL     1 RESIDUE           4 A     UNL     0 ROOT
